# File generated by Flopy version 3.3.3 on 04/26/2021 at 16:45:12.
BEGIN options
  PRINT_OPTION  summary
  COMPLEXITY  complex
END options

BEGIN nonlinear
  OUTER_DVCLOSE  1.00000000E-04
END nonlinear

BEGIN linear
  INNER_DVCLOSE  1.00000000E-04
END linear

