# File generated by Flopy version 3.3.3 on 04/26/2021 at 16:45:12.
BEGIN options
END options

BEGIN griddata
  icelltype
    CONSTANT  0
  k
    CONSTANT  1.00000000E-04
END griddata

