# File generated by Flopy version 3.3.3 on 04/26/2021 at 16:45:12.
BEGIN options
  TIME_UNITS  seconds
END options

BEGIN dimensions
  NPER  1
END dimensions

BEGIN perioddata
     100.00000000  1       1.00000000
END perioddata

