# File generated by Flopy version 3.3.3 on 04/26/2021 at 16:45:12.
BEGIN griddata
  strt
    CONSTANT      10.00000000
END griddata

