# File generated by Flopy version 3.3.3 on 04/26/2021 at 16:45:12.
BEGIN options
  SAVE_FLOWS
END options

BEGIN packages
  DISV6  mfsimple.disv  disv
  NPF6  mfsimple.npf  npf
  IC6  mfsimple.ic  ic
  CHD6  mfsimple.chd  chd_0
END packages

