# File generated by Flopy version 3.3.3 on 04/26/2021 at 16:45:12.
BEGIN options
  LENGTH_UNITS  meters
END options

BEGIN dimensions
  NLAY  1
  NCPL  767
  NVERT  423
END dimensions

BEGIN griddata
  top
    CONSTANT      10.00000000
  botm
    CONSTANT       0.00000000
END griddata

BEGIN vertices
  1       0.00000000       0.00000000
  2       0.00000000     100.00000000
  3     100.00000000     100.00000000
  4     100.00000000       0.00000000
  5      50.00000000      50.00000000
  6       0.00000000      50.00000000
  7      50.00000000       0.00000000
  8     100.00000000      50.00000000
  9      50.00000000     100.00000000
  10      75.00000000      25.00000000
  11      25.00000000      75.00000000
  12      75.00000000      75.00000000
  13      50.00000000      25.00000000
  14      75.00000000       0.00000000
  15     100.00000000      25.00000000
  16      87.50000000      37.50000000
  17      87.50000000      12.50000000
  18      87.50000000      25.00000000
  19     100.00000000      37.50000000
  20      93.75000000      43.75000000
  21      93.75000000      37.50000000
  22      90.62500000      31.25000000
  23      93.75000000      25.78125000
  24     100.00000000      12.50000000
  25     100.00000000      31.25000000
  26      91.45507812      18.75000000
  27      95.31250000      30.30133929
  28      90.94812730      22.80560662
  29     100.00000000      18.75000000
  30      96.87500000      34.40939057
  31      95.72753906      15.62500000
  32      84.53926746      18.75000000
  33      95.72753906      21.24565972
  34      87.99717279      16.56179428
  35      81.25000000      24.13445757
  36      79.31802811      33.18197189
  37      78.64302013      28.30780311
  38      84.32304680      30.00501869
  39      72.26217022      31.67529076
  40      86.94304300      33.31527150
  41      76.42170431      11.07829569
  42      77.45273015      18.11786860
  43      80.83963419      20.18686684
  44      62.50000000      23.77229873
  45      71.73131285      51.43611665
  46      81.72940505      13.59264485
  47      87.50000000       0.00000000
  48      81.25000000       0.00000000
  49      83.41840358       6.72829821
  50      80.36353005       9.61660056
  51      76.56879131       5.42904645
  52      62.50000000       0.00000000
  53      68.75000000       0.00000000
  54      68.94965428       8.05720980
  55      73.25113737       8.16920561
  56      84.37500000       0.00000000
  57      65.62500000       4.10851477
  58      58.92468381      13.12389678
  59      63.33906863       9.40714903
  60      71.87500000       3.60280131
  61      68.10784736      16.89277333
  62      71.64606351      13.10086590
  63      56.25000000       0.00000000
  64      63.76759020      14.39596289
  65      63.89939282      19.18763224
  66      59.37500000       5.01972849
  67      67.43722944      12.10837044
  68      68.56593747      26.26020597
  69      67.94246570      21.59577807
  70      72.53154054      19.40274317
  71      61.38436933      35.13123740
  72      63.64516819      29.61902847
  73      67.09322294      34.25295798
  74      56.01081567      29.70757625
  75      73.87742698      41.38576423
  76      59.84675336      31.28086270
  77      71.57980003      36.77837640
  78      76.48475400      37.20894612
  79      65.38523095      42.74409191
  80      81.97371802      38.06064212
  81      67.51326018      38.75479679
  82      85.54120396      45.70879604
  83      85.09018435      41.26306948
  84      79.51389853      44.07452578
  85      80.38573242      52.79084172
  86      74.74240205      46.82478047
  87      69.29189362      46.55448414
  88      78.90763136      48.53692635
  89      60.65397005      53.92129592
  90      63.53368004      48.55030150
  91      66.38511100      53.53661269
  92      56.66507505      48.32512252
  93      73.27934488      63.23003112
  94      60.23502545      44.30006185
  95      50.94326474      39.65459269
  96      61.69361315      39.82645152
  97      56.30558928      40.54431207
  98      52.87746066      44.60140668
  99      54.44188763      35.17263021
  100      71.03812380      57.52565459
  101      46.50385107      32.58268851
  102      75.61260296      54.96215750
  103     100.00000000      75.00000000
  104      81.24663360      61.01529323
  105      79.44142791      57.04697109
  106      86.27913748      56.33122825
  107      62.97856590      63.98468524
  108      51.30884102      31.31544969
  109      63.83882678      58.48578896
  110      68.01172357      62.00718270
  111      68.96170380      69.87198427
  112      66.73482969      66.15119152
  113      60.68677611      72.29770088
  114      90.21637605       6.25000000
  115      94.79443447       9.86614348
  116      91.90759198      13.28892059
  117      93.75000000       0.00000000
  118     100.00000000       6.25000000
  119      95.03781607       4.85202509
  120      80.38962069       3.99085091
  121      56.14743986      23.34191996
  122      59.11824665      26.58997581
  123      50.99240579      16.45435210
  124      52.19817665      20.92482620
  125      56.69924122      18.00546173
  126      69.75439989      42.34637201
  127      54.55960187      54.04559063
  128      57.28002568      60.27645276
  129      42.53619385      63.00437332
  130      47.61796588      57.27693835
  131      50.38773429      54.15525789
  132      85.44003848      51.05267193
  133      90.53969816      48.47631860
  134      95.41537239      48.33462761
  135     100.00000000      62.50000000
  136     100.00000000      56.25000000
  137      93.15782847      59.37500000
  138      93.12901869      53.61811059
  139     100.00000000      59.37500000
  140     100.00000000      53.12500000
  141      74.89495731      69.00460025
  142      78.06411751      65.00463763
  143      88.56911380      70.12093718
  144      83.88906574      66.38740938
  145      89.49302845      64.16276412
  146      82.09809684      73.43245144
  147      79.57786954      69.45941960
  148      88.83074846      59.85932614
  149      94.93669503      64.53313057
  150     100.00000000      68.75000000
  151      85.32917278      62.34311393
  152      94.39242834      70.33490156
  153     100.00000000      87.50000000
  154      91.12290399      79.96773019
  155      91.31782837      74.66261365
  156     100.00000000      81.25000000
  157      86.29611193      77.13424146
  158      95.55620125      77.47448227
  159      75.00000000     100.00000000
  160      84.00000000     100.00000000
  161      82.95875625      88.34727772
  162      86.00864534      83.15185192
  163      95.01744514      84.37500000
  164      78.26553364      82.09929227
  165      81.49569329      78.34688179
  166      92.00000000     100.00000000
  167      89.81820565      88.88109798
  168      81.91722987      84.24296036
  169      90.33711985      84.40488248
  170      66.95509025      78.35388301
  171      86.96246515       8.55108061
  172      86.64826983       4.08547502
  173      57.07203260      66.82874726
  174      61.26687286      67.98520991
  175      46.41384771      77.80242175
  176      51.02694827      63.35740637
  177      52.94654700      73.48458803
  178      54.97423221      63.48270717
  179      56.54314112      71.10739375
  180      31.28283298      47.90145655
  181      73.59369930      90.49524475
  182      77.68337071      87.27312554
  183     100.00000000      92.00000000
  184      95.12063280      89.75000000
  185      95.45045707      95.45045707
  186      89.70563846      94.67669746
  187      88.00000000     100.00000000
  188      70.12201486      74.62479366
  189      65.32967497      73.76420293
  190      72.54260916      80.43103754
  191      72.95270518      85.47519846
  192      62.50000000     100.00000000
  193      62.95358738      89.30290117
  194      68.41864923      88.60508440
  195      68.75000000     100.00000000
  196      65.03543044      83.85802839
  197      66.37725279      94.36672126
  198      71.87500000      95.60595342
  199      55.11685646      83.18610096
  200      60.37266591      79.14498486
  201      59.97311623      85.04288828
  202      54.51756713      92.03243654
  203      56.17362815      87.70115831
  204      48.28361761      87.16665461
  205      55.34309479      78.04197492
  206      50.81146814      80.41971227
  207      52.58136104      58.62615604
  208      46.84283836      61.70735754
  209      46.55792483      68.55977775
  210      52.15698932      68.38872803
  211      40.42358526      50.89359181
  212      45.40565978      52.52442485
  213      41.18238038      57.00088016
  214      29.51598185      62.78609505
  215      34.09092563      54.78117012
  216      36.05262920      61.31205302
  217      38.14158051      54.27789977
  218      36.90437266      71.31485540
  219      32.08410455      58.94402906
  220      20.84272641      54.20936917
  221      27.48129787      54.15996780
  222      38.24917773      66.16268023
  223      41.69593737      69.81393898
  224      32.72358763      67.47200358
  225      45.15189112      73.16030503
  226      24.20146700      59.48662519
  227      24.11473266      47.83123716
  228      31.01612010      52.02326711
  229      31.05347478      73.48462666
  230      26.19514691      68.50007048
  231      28.07270425      58.19720844
  232       0.00000000      75.00000000
  233      24.14482471      51.87501639
  234      25.00000000     100.00000000
  235      25.06695033      64.02240255
  236      13.56884317      69.30043886
  237      19.80771791      67.72848729
  238      37.20222626      81.09153925
  239      40.86903784      76.81718551
  240      22.62819644      71.20405367
  241      16.54537356      77.64371039
  242      14.67817125      60.53659636
  243      35.40800187      76.25332248
  244      29.53489624      81.18312655
  245      19.31599708      58.88853811
  246      18.29985392      63.37871146
  247      28.72307128      77.02396423
  248      83.86779541      94.13893134
  249      78.61045125      92.65628673
  250      37.50000000     100.00000000
  251      39.24145057      90.51600026
  252       0.00000000      25.00000000
  253      27.88066378      29.29966682
  254      22.43445866      81.63622722
  255      48.19197917      93.71036128
  256      50.71864039      90.47324980
  257      56.25000000     100.00000000
  258      43.75000000     100.00000000
  259      44.33390150      90.38383755
  260      41.90737980      95.06230583
  261      41.64785714      85.06246257
  262      43.02610589      80.77285736
  263      52.17660834      95.96962534
  264      59.37500000      95.14838527
  265      33.43667040      86.83916381
  266      37.40884839      85.33422184
  267      11.75173937      45.51731595
  268      27.78633457      38.92893340
  269      21.07783836      77.29773465
  270      12.50000000     100.00000000
  271       0.00000000      84.00000000
  272      47.02085800      82.84652029
  273      58.99732414      90.89903113
  274      33.38722099      82.69945291
  275      31.25000000     100.00000000
  276      28.12500000      92.71870632
  277      34.37500000      94.52430567
  278      28.12500000     100.00000000
  279      32.03323525      90.91037281
  280      17.58927898      48.51199622
  281      14.40769988      54.10643246
  282      18.59473601      39.36514846
  283       0.00000000      62.50000000
  284      13.26490149      49.75461154
  285       6.70507614      53.80319830
  286      20.43729419      44.19637536
  287      15.83991562      43.18277165
  288       0.00000000      37.50000000
  289       9.30388114      36.48389689
  290      13.69812592      38.73448375
  291      23.24797874      40.35744641
  292      16.58088249      27.69078550
  293      22.28735089      33.45566150
  294      13.91630566      32.89334089
  295      10.41701681      57.49506254
  296       8.81407382      64.24644899
  297       0.00000000      56.25000000
  298       7.03491038      28.81134352
  299      18.19411522      31.80066173
  300       0.00000000      53.12500000
  301       4.90940837      59.37500000
  302       9.67473076      32.20245405
  303       0.00000000      31.25000000
  304       4.62124462      33.92151418
  305       0.00000000      28.12500000
  306      27.73551891      44.11627173
  307      13.40246227      88.61915042
  308      26.31869482      86.64398721
  309      20.48056382      91.68585351
  310      21.19280903      86.60957574
  311      24.53546352      90.48013747
  312       5.80614435      47.57586705
  313       9.06257462      50.28433992
  314       0.00000000      43.75000000
  315       7.17345725      41.90956244
  316       0.00000000      40.62500000
  317       4.39067312      38.39692776
  318      27.11215720      34.10723377
  319      36.79582085      33.18999393
  320      31.83544141      32.39705973
  321      35.84942578      23.19852702
  322      35.03128751      28.31657623
  323      42.11554835      26.82460462
  324      22.34518821      27.69164588
  325      25.00000000       0.00000000
  326      27.44324345      20.47373632
  327      26.13938413      24.96216136
  328      20.28676216      20.82841739
  329      30.96728738      23.93104298
  330      13.27700925      64.81136781
  331       6.41390681      71.26814155
  332      15.06767936      94.47740228
  333      18.75000000     100.00000000
  334      19.14802900      95.74566951
  335      41.58083584      31.78334547
  336      42.79949726      39.83749130
  337      40.25163517      36.10373483
  338      35.69612706      41.94853909
  339      46.96827479      44.06034771
  340      31.31417093      41.55741048
  341      44.15577070      47.91739226
  342      33.62817217      37.09408206
  343      39.36128730      45.73325940
  344      35.94186604      49.12668382
  345      42.79556000      18.42230188
  346      47.18365132      20.85039956
  347      46.54153839      28.00273634
  348      10.85918895      20.16907769
  349      23.36575674      10.57767422
  350       9.47098557      68.39205657
  351      11.24233766      74.83302529
  352      10.86418481      81.95457312
  353       5.65724280      77.34535800
  354       0.00000000      79.50000000
  355       0.00000000      68.75000000
  356       4.50786199      66.69555315
  357       0.00000000      71.87500000
  358      23.95933419      95.27951575
  359      40.45799196      22.46178738
  360      15.42364055      22.63401517
  361      11.56454554      26.17797168
  362      23.64687693      16.24990092
  363      16.01548317      14.17154938
  364      16.64339693      18.46739287
  365      31.49049523      13.01808516
  366      20.27697413      13.57383644
  367      12.50000000       0.00000000
  368      17.23035485       7.34282280
  369      28.14268351      16.02708507
  370      33.21464318      18.30325800
  371      38.06181721      13.79818032
  372      37.91616786      18.50163367
  373      37.50000000       0.00000000
  374      45.36250516      11.05946158
  375      35.53801688       6.99041345
  376      42.35386362      14.13942714
  377      35.05724079      11.04034822
  378      16.43015879      83.39085806
  379       0.00000000      92.00000000
  380       8.00000000     100.00000000
  381       8.38645223      93.21075516
  382      11.30224296      96.08490632
  383       5.41161749      82.86853508
  384       0.00000000      88.00000000
  385       0.00000000      12.50000000
  386      18.75000000       0.00000000
  387      21.87500000       4.47540081
  388      28.67650623       5.89589666
  389      15.62500000       3.18192248
  390       8.17383386       8.44686321
  391      11.02384925       4.57525254
  392       6.25000000       0.00000000
  393       0.00000000       6.25000000
  394       3.54224063       9.37500000
  395       4.60277325       4.60277325
  396       7.05266984      14.87239362
  397      11.36139569      12.31362641
  398       0.00000000      18.75000000
  399       0.00000000      15.62500000
  400       5.34371799      20.11669033
  401       7.40082081      24.22836741
  402      52.59124888       9.15084150
  403      53.12500000       4.05739546
  404      47.25107819       5.34934845
  405      41.45475845       6.59963487
  406      43.75000000       0.00000000
  407      38.31167791       3.99835110
  408       4.00000000     100.00000000
  409       7.97826551      87.72921537
  410       4.46151199      90.74706075
  411       0.00000000      96.00000000
  412       4.49307215      95.50692785
  413      31.25000000       0.00000000
  414      32.48894528       4.05038506
  415      27.86837148      10.33219231
  416      13.05505113       8.36320068
  417      54.36058263      13.36493413
  418      49.56009396      12.31403840
  419      57.12432399       8.95926271
  420     100.00000000      43.75000000
  421      17.61359253      72.56002798
  422      79.50000000     100.00000000
  423      46.81679676      37.31561688
END vertices

BEGIN cell2d
  1      65.33028415      36.04633072  3  73  71  81
  2      43.41264086      28.87022881  3  335  347  323
  3      53.74155897      50.79023772  3  127  92  5
  4      39.54276395      33.69235808  3  319  337  335
  5      43.25239721      23.37893052  3  359  323  346
  6      65.62500000       1.36950492  3  52  57  53
  7      78.29767338      25.81408689  3  37  35  10
  8      51.64911205      52.73361617  3  127  5  131
  9      93.22916667      29.11086310  3  23  22  27
  10      85.74219261      14.21814638  3  34  17  46
  11      21.45339683      57.52817749  3  220  245  226
  12      24.01565579      87.91123347  3  311  308  310
  13      68.80226161      85.97943708  3  196  194  191
  14      76.49094228      71.15467328  3  141  12  147
  15      52.43988556      28.67434198  3  108  74  13
  16      75.30173012      28.32769796  3  39  37  10
  17      73.89830956       5.73368445  3  51  60  55
  18      90.73270910      24.52895221  3  28  18  23
  19      89.41296821      56.60288833  3  106  148  138
  20      95.83333333      39.58333333  3  21  20  19
  21      93.47522212      23.27750545  3  28  23  33
  22      89.69547773       9.36333373  3  114  171  116
  23      84.75528177      16.30147971  3  46  32  34
  24      81.40535564      27.48242645  3  35  37  38
  25      94.27083333      31.98690995  3  30  27  22
  26      75.12711542      48.93260782  3  88  86  45
  27      98.47179080      47.36154254  3  420  134  8
  28      90.62500000      35.41666667  3  16  21  22
  29      91.66666667      39.58333333  3  21  16  20
  30      90.62500000      27.34375000  3  22  23  18
  31      83.52803930      32.16742069  3  40  38  36
  32      87.82818918      19.37246697  3  32  28  34
  33      96.87500000      36.46979686  3  30  21  19
  34      92.30613417       9.80168802  3  115  114  116
  35      96.84065785      12.66371449  3  115  31  24
  36      98.43750000      28.85044643  3  27  25  15
  37      96.49251302      24.00896991  3  23  15  33
  38      96.35416667      27.02752976  3  23  27  15
  39      98.95833333      34.38646352  3  30  19  25
  40      87.66246492      22.18520221  3  18  28  32
  41      92.71024816      20.93375545  3  26  28  33
  42      93.75000000      34.38646352  3  21  30  22
  43      98.57584635      15.62500000  3  29  24  31
  44      97.39583333      31.98690995  3  27  30  25
  45      90.45328096      16.20023829  3  34  26  116
  46      97.15169271      18.54021991  3  29  31  33
  47      84.42975582      22.62815252  3  32  35  18
  48      82.00487356       1.33028364  3  48  120  56
  49      94.30338542      18.54021991  3  26  33  31
  50      98.57584635      21.66521991  3  29  33  15
  51      89.13492159      14.11690496  3  116  17  34
  52      90.13345940      19.37246697  3  26  34  28
  53      80.76136501      30.49826456  3  37  36  38
  54      78.53461317      14.26293638  3  46  41  42
  55      82.19260030      41.13274579  3  80  84  83
  56      64.90370189      26.55051106  3  72  68  44
  57      84.35768227      26.37982542  3  18  35  38
  58      76.74107282      31.05502192  3  36  37  39
  59      87.48268227      28.75167290  3  38  22  18
  60      87.29702993      31.52343006  3  22  38  40
  61      70.31173106      34.23554172  3  73  77  39
  62      60.87005607      29.16328899  3  122  76  72
  63      88.35601433      34.02175717  3  40  16  22
  64      85.47225367      36.29197121  3  80  16  40
  65      82.20963388      21.02377480  3  35  32  43
  66      71.94270256      27.64516558  3  68  39  10
  67      77.76412145      21.10157848  3  43  42  10
  68      70.50280106      24.28532802  3  10  69  68
  69      79.02987806      23.10710814  3  35  43  10
  70      80.00725646      17.29912676  3  42  43  46
  71      62.50000000       3.04274775  3  57  52  66
  72      61.45540808      17.19635229  3  125  65  64
  73      84.85463412      38.94123720  3  16  80  83
  74      60.28424171      50.26557331  3  90  92  89
  75      82.36943556      17.50983723  3  43  32  46
  76      87.94237034       6.29551854  3  114  172  171
  77      79.50487980      11.42918037  3  46  50  41
  78      83.01846675      10.58677534  3  171  50  46
  79      79.10731401       6.34549931  3  120  51  50
  80      86.17442328       1.36182501  3  47  56  172
  81      77.78467522       8.70798090  3  41  50  51
  82      83.58146626       8.29865979  3  49  50  171
  83      68.75000000       2.57043869  3  57  60  53
  84      78.87987356       1.33028364  3  48  14  120
  85      73.87677806      16.87382589  3  62  70  42
  86      71.87500000       1.20093377  3  60  14  53
  87      75.41387766       8.22551591  3  41  51  55
  88      65.97124097       7.19095786  3  54  57  59
  89      73.77296840      10.78278907  3  41  55  62
  90      68.81655143       5.25617529  3  60  57  54
  91      62.01044755      12.30900290  3  59  58  64
  92      83.80429684       2.69210864  3  120  172  56
  93      62.77968954       6.17846409  3  57  66  59
  94      59.25522884      24.56806483  3  44  121  122
  95      53.29660789      18.46154668  3  125  123  124
  96      69.34431574      11.08881538  3  54  67  62
  97      56.54144133       6.01212889  3  66  403  419
  98      74.48126377       3.01061592  3  14  60  51
  99      71.35859722       6.60973890  3  55  60  54
  100      71.28228505       9.77576044  3  62  55  54
  101      71.82466875      21.99950708  3  69  10  70
  102      75.17349932      14.09901006  3  41  62  42
  103      66.43755567      14.46570222  3  67  64  61
  104      66.57531745       9.85757642  3  54  59  67
  105      59.37500000       1.67324283  3  66  52  63
  106      65.25827679      16.82545615  3  61  64  65
  107      66.64990196      19.22539455  3  61  65  69
  108      58.44889369      21.70656014  3  125  121  44
  109      59.79602548      10.49676951  3  59  419  58
  110      52.17064182      11.60993801  3  417  402  418
  111      69.06371344      14.03400322  3  62  67  61
  112      64.84796276      11.97049412  3  64  67  59
  113      66.43477620      30.04406414  3  68  72  73
  114      64.78061951      21.51856968  3  69  65  44
  115      69.52728453      19.29709819  3  70  61  69
  116      66.33613439      23.87609426  3  68  69  44
  117      70.76181713      16.46546080  3  61  70  62
  118      74.99475690      20.84020392  3  42  70  10
  119      64.04092015      33.00107462  3  73  72  71
  120      57.37728208      36.94939323  3  99  97  71
  121      69.30711021      30.72948491  3  39  68  73
  122      61.62543029      32.01037619  3  71  72  76
  123      73.44224142      35.22087109  3  77  78  39
  124      68.72876105      36.59537706  3  73  81  77
  125      59.79452392      38.50066700  3  97  96  71
  126      54.05275184      26.01649874  3  121  13  74
  127      79.25883338      36.15052004  3  80  36  78
  128      71.26289852      45.24187887  3  87  86  126
  129      58.55767011      33.86157677  3  71  76  99
  130      58.32527189      29.19280492  3  122  74  76
  131      76.02165078      34.02206959  3  36  39  78
  132      69.61582003      39.29318173  3  126  77  81
  133      82.74492971      34.85262850  3  80  40  36
  134      73.98066034      38.45769558  3  78  77  75
  135      66.07026821      45.94962585  3  90  87  79
  136      63.05131215      45.19815175  3  94  90  79
  137      88.12712944      43.57395517  3  82  20  83
  138      79.32412351      39.78137134  3  84  80  78
  139      71.73720897      40.17017088  3  75  77  126
  140      64.86403476      40.44178007  3  96  79  81
  141      89.70291844      51.04903371  3  133  132  138
  142      76.62535983      40.88974538  3  84  78  75
  143      88.78006145      40.83768983  3  16  83  20
  144      83.38176228      43.68213043  3  84  82  83
  145      83.29629127      48.43279810  3  88  132  82
  146      71.92186951      48.27179375  3  45  86  87
  147      87.17364687      48.41259552  3  133  82  132
  148      76.11112525      58.41305323  3  105  102  93
  149      76.04457585      44.09502349  3  86  84  75
  150      77.72131064      46.47874420  3  84  86  88
  151      66.40356156      49.54713277  3  91  87  90
  152      67.55096367      41.28175357  3  126  81  79
  153      81.32091128      46.10674939  3  84  88  82
  154      78.30198891      52.09664186  3  102  85  88
  155      63.52425370      52.00273670  3  90  89  91
  156      63.62596928      55.31456586  3  91  89  109
  157      69.13610583      50.50907116  3  45  87  91
  158      57.29288232      52.09733636  3  92  127  89
  159      69.71818255      54.16612798  3  91  100  45
  160      67.62955805      59.33954209  3  110  100  109
  161      56.47269179      43.14859353  3  98  94  97
  162      60.14459351      47.05849529  3  94  92  90
  163      73.31002388      58.57261440  3  93  102  100
  164      69.65862612      66.41773564  3  112  111  93
  165      53.37543822      41.60010381  3  97  95  98
  166      63.53041422      37.90416190  3  71  96  81
  167      43.49511093      45.90366646  3  343  341  339
  168      53.92051477      32.06521872  3  74  108  99
  169      62.43795652      42.29020176  3  96  94  79
  170      59.41140929      41.55694181  3  94  96  97
  171      56.59252039      45.74219702  3  92  94  98
  172      53.89691388      38.45717832  3  99  95  97
  173      53.18084524      47.64217640  3  98  5  92
  174      45.52818960      40.40448530  3  423  336  339
  175      50.85584180      34.60123226  3  423  99  108
  176      56.76648555      32.05368972  3  76  74  99
  177      72.79401321      54.64130958  3  45  100  102
  178      70.77639742      60.92095614  3  110  93  100
  179      43.32833858      50.44513630  3  211  212  341
  180      27.71102819      46.61632181  3  180  306  227
  181      75.41718239      51.64506683  3  45  102  88
  182      78.47992109      54.93332344  3  105  85  102
  183      82.32239966      58.13116419  3  106  105  104
  184      73.33899072      72.87646464  3  188  12  141
  185      81.06660562      64.13578008  3  104  142  144
  186      82.03543260      55.38968035  3  85  105  106
  187      77.98913546      60.43076514  3  104  105  93
  188      84.03496946      53.39158063  3  85  106  132
  189      92.52918398      62.69029823  3  137  145  149
  190      65.90837305      64.04768649  3  110  107  112
  191      56.44209683      63.52930240  3  173  128  178
  192      50.73398304      37.38094659  3  95  99  423
  193      48.11807683      30.63362485  3  347  101  108
  194      67.08735386      56.51601875  3  91  109  100
  195      61.36580612      60.91564232  3  128  107  109
  196      72.37866866      67.36887188  3  111  141  93
  197      64.94303875      61.49255230  3  107  110  109
  198      75.26938093      79.17677660  3  164  12  190
  199      67.00873615      69.92912624  3  111  112  189
  200      69.34196605      63.79613511  3  110  112  93
  201      64.44379250      69.30020145  3  112  174  189
  202      71.32622532      71.16712606  3  188  141  111
  203      35.67513152      64.98224561  3  224  222  216
  204      98.34593869       3.70067503  3  118  4  119
  205      98.26481149       9.53871449  3  24  118  115
  206      94.14318851      12.92668802  3  31  115  116
  207      93.00139737       3.70067503  3  119  117  114
  208      93.03006972      15.88797353  3  26  31  116
  209      88.79001904      11.44666707  3  171  17  116
  210      93.34954220       6.98938952  3  114  115  119
  211      90.48879202       2.08333333  3  117  47  114
  212      96.26260536       1.61734170  3  117  119  4
  213      96.61075018       6.98938952  3  119  115  118
  214      81.39051810       6.77858323  3  49  120  50
  215      77.31947066       3.13996579  3  51  120  14
  216      52.78187217      23.08891539  3  13  121  124
  217      61.03287801      20.32179757  3  44  65  125
  218      61.75447161      26.66043434  3  72  44  122
  219      57.09216739      26.54649067  3  122  121  74
  220      36.52531146      38.38211866  3  342  338  337
  221      54.69205183      10.49167945  3  402  417  419
  222      49.79394266      22.25840859  3  13  124  346
  223      54.01740988      15.94158266  3  125  417  123
  224      59.79717174      15.17510714  3  64  58  125
  225      55.01495258      20.75740263  3  125  124  121
  226      72.79140964      43.51897224  3  75  126  86
  227      68.14384149      43.88164935  3  87  126  79
  228      60.59094084      57.56117922  3  109  89  128
  229      57.49786587      56.08111310  3  127  128  89
  230      60.43915712      66.26621414  3  107  173  174
  231      49.91395414      66.76863738  3  210  176  209