# File generated by Flopy version 3.3.3 on 04/26/2021 at 16:45:12.
BEGIN options
END options

BEGIN timing
  TDIS6  mfsimple.tdis
END timing

BEGIN models
  gwf6  mfsimple.nam  mfsimple
END models

BEGIN exchanges
END exchanges

BEGIN solutiongroup  1
  ims6  mfsimple.ims  mfsimple
END solutiongroup  1

