# File generated by Flopy version 3.3.3 on 04/26/2021 at 16:45:12.
BEGIN options
END options

BEGIN dimensions
  MAXBOUND  36
END dimensions

BEGIN period  1
  1 6      30.00000000
  1 48      30.00000000
  1 80      30.00000000
  1 84      30.00000000
  1 86      30.00000000
  1 105      30.00000000
  1 211      30.00000000
  1 212      30.00000000
  1 636      30.00000000
  1 673      30.00000000
  1 684      30.00000000
  1 709      30.00000000
  1 711      30.00000000
  1 735      30.00000000
  1 740      30.00000000
  1 750      30.00000000
  1 751      30.00000000
  1 291      20.00000000
  1 335      20.00000000
  1 338      20.00000000
  1 346      20.00000000
  1 355      20.00000000
  1 356      20.00000000
  1 364      20.00000000
  1 454      20.00000000
  1 456      20.00000000
  1 460      20.00000000
  1 472      20.00000000
  1 474      20.00000000
  1 484      20.00000000
  1 508      20.00000000
  1 563      20.00000000
  1 654      20.00000000
  1 697      20.00000000
  1 742      20.00000000
  1 747      20.00000000
END period  1

